*SPEF "IEEE 1481-2019"
*PROGRAM "Parasitics Generator"
*VERSION "1.1.0"
*DESIGN_FLOW "EXTERNAL_LOADS" "EXTERNAL_SLEWS" "MISSING_NETS"
*DIVIDER /
*DELIMITER :
*BUS_DELIMITER [ ]
*T_UNIT 1 NS
*C_UNIT 1 PF
*R_UNIT 1 OHM
*L_UNIT 1 HENRY
*POWER_NETS VDD
*GND_NETS VSS
*PORTS
CONTROL O *L 30 *S 0 0
FARLOAD O *L 30 *S 0 0
INVX1FNTC_IN I *L 30 *S 5 5
NEARLOAD O *L 30 *S 0 0
TREE O *L 30 *S 0 0
*D_NET INVX1FNTC_IN 0.033
*CONN
*P INVX1FNTC_IN I
*I FL_1281:A I *L 0.033
*END
*D_NET INVX1FNTC 2.033341
*CONN
*I FL_1281:X O *L 0.0
*I I1184:A I *L 0.343
*I FL_1000:A I *L 0.343
*I NL_1000:A I *L 0.343
*I TR_1000:A I *L 0.343
*CAP
216 FL_1000:A 0.346393
217 I1184:A 0.344053
218 INVX1FNTC_IN 0
219 INVX1FNTC_IN:10 0.0154198
220 INVX1FNTC_IN:11 0.0117827
221 INVX1FNTC_IN:12 0.0463063
222 INVX1FNTC_IN:13 0.0384381
223 INVX1FNTC_IN:14 0.00246845
224 INVX1FNTC_IN:15 0.00350198
225 INVX1FNTC_IN:16 0.00226712
226 INVX1FNTC_IN:17 0.0426184
227 INVX1FNTC_IN:18 0.0209701
228 INVX1FNTC_IN:2 0.0699292
229 INVX1FNTC_IN:20 0.019987
230 INVX1FNTC_IN:21 0.0110279
231 INVX1FNTC_IN:24 0.0192603
232 INVX1FNTC_IN:25 0.0141824
233 INVX1FNTC_IN:3 0.0520437
234 INVX1FNTC_IN:4 0.0527105
235 INVX1FNTC_IN:5 0.1184749
236 INVX1FNTC_IN:6 0.0468458
237 INVX1FNTC_IN:7 0.0391578
238 INVX1FNTC_IN:8 0.0113856
239 INVX1FNTC_IN:9 0.0142528
240 NL_1000:A 0.344804
241 TR_1000:A 0.34506
*RES
152 INVX1FNTC_IN INVX1FNTC_IN:18 8.39117
153 INVX1FNTC_IN INVX1FNTC_IN:5 25.1397
154 INVX1FNTC_IN:11 INVX1FNTC_IN:20 4.59517
155 INVX1FNTC_IN:12 INVX1FNTC_IN:13 3.688
156 INVX1FNTC_IN:13 INVX1FNTC_IN:17 25.102
157 INVX1FNTC_IN:14 INVX1FNTC_IN:16 0.0856444
158 INVX1FNTC_IN:14 NL_1000:A 0.804
159 INVX1FNTC_IN:15 INVX1FNTC_IN:16 1.73764
160 INVX1FNTC_IN:15 INVX1FNTC_IN:24 0.307175
161 INVX1FNTC_IN:17 INVX1FNTC_IN:25 5.65517
162 INVX1FNTC_IN:18 FL_1000:A 1.36317
163 INVX1FNTC_IN:2 INVX1FNTC_IN:4 6.95371
164 INVX1FNTC_IN:2 INVX1FNTC_IN:5 50.9942
165 INVX1FNTC_IN:20 INVX1FNTC_IN:21 4.71035
166 INVX1FNTC_IN:21 I1184:A 0.403175
167 INVX1FNTC_IN:25 TR_1000:A 0.923175
168 INVX1FNTC_IN:3 INVX1FNTC_IN:12 31.7256
169 INVX1FNTC_IN:3 INVX1FNTC_IN:4 11.9254
170 INVX1FNTC_IN:4 INVX1FNTC_IN:7 25.3618
171 INVX1FNTC_IN:5 INVX1FNTC_IN:6 23.3057
172 INVX1FNTC_IN:6 INVX1FNTC_IN:24 8.64717
173 INVX1FNTC_IN:7 INVX1FNTC_IN:8 7.46529
174 INVX1FNTC_IN:8 INVX1FNTC_IN:10 2.04729
175 INVX1FNTC_IN:9 INVX1FNTC_IN:10 10.8533
176 INVX1FNTC_IN:9 INVX1FNTC_IN:11 1.05164
*END
*D_NET NE_794 1.98538
*CONN
*I NL_1039:X O *L 0 *D INVX
*I NL_2039:A I *L 0.343
*I NL_1040:A I *L 0.343
*CAP
3387 NE_794 0
3388 NE_794:1 0.0792492
3389 NE_794:10 0.0789158
3390 NE_794:11 0.0789991
3391 NE_794:12 0.0789991
3392 NE_794:13 0.0792992
3393 NE_794:14 0.00093352
3394 NE_794:15 0.00063346
3395 NE_794:16 0.0792992
3396 NE_794:17 0.080116
3397 NE_794:18 0.080116
3398 NE_794:19 0.00125452
3399 NE_794:2 0.0789158
3400 NE_794:20 0.00336991
3401 NE_794:21 0.00668512
3402 NE_794:23 0.00294932
3403 NE_794:25 0.00259882
3404 NE_794:26 0.00184653
3405 NE_794:3 0.0789158
3406 NE_794:4 0.0796826
3407 NE_794:5 0.0796826
3408 NE_794:6 0.0789991
3409 NE_794:7 0.0789991
3410 NE_794:8 0.0793992
3411 NE_794:9 0.0789158
3412 NL_1039:X 0.00871972
3413 NL_1040:A 0.344453
3414 NL_2039:A 0.343427
*RES
2879 NE_794:1 NE_794:13 66.1953
2880 NE_794:1 NE_794:2 0.311289
2881 NE_794:11 NE_794:12 0.311289
2882 NE_794:13 NE_794:14 0.353289
2883 NE_794:14 NE_794:19 0.365644
2884 NE_794:15 NE_794:16 0.227289
2885 NE_794:15 NE_794:20 0.239644
2886 NE_794:17 NE_794:18 0.14
2887 NE_794:19 NE_794:21 0.0511746
2888 NE_794:2 NE_794:9 65.9153
2889 NE_794:20 NE_794:23 1.15117
2890 NE_794:21 NL_1039:X 3.01917
2891 NE_794:25 NE_794:26 0.166349
2892 NE_794:26 NL_1040:A 0.651175
2893 NE_794:3 NE_794:10 65.9153
2894 NE_794:3 NE_794:4 0.311289
2895 NE_794:4 NE_794:17 66.5437
2896 NE_794:5 NE_794:18 66.5437
2897 NE_794:5 NE_794:6 0.311289
2898 NE_794:6 NE_794:11 65.9853
2899 NE_794:7 NE_794:12 65.9853
2900 NE_794:7 NE_794:8 0.311289
2901 NE_794:8 NE_794:16 66.3213
2902 NE_794:9 NE_794:10 0.311289
2903 NL_1039:X NE_794:25 1.00317
2904 NL_2039:A NE_794:23 0.171175
*END
